[General]
network = OpportunisticCellularNetwork
sim-time-limit = 1s

# +-------------------------------------------------------------------------------+
#  Test 1: 1 user, fixed CQI = 7, deterministic arrivals, queue of infite dimension
#**.population             = 1
#**.stage                  = 0
#**.antenna.timeslot       = 1 ms
#**.antenna.queueDimension = 0
#**.cellular[*].TEST	   = 1
#**.cellular[*].TEST_CQI   = 7
#**.source[*].TEST	       = 1
#**.source[*].TEST_PERIOD  = 0.20 ms
#**.source[*].TEST_SIZE    = 50
#  Pseudo Random Generators
#num-rngs = 1   			
#**.antenna.rng-0          = 0
# +-------------------------------------------------------------------------------+

# +-------------------------------------------------------------------------------+
#  Degeneracy Test 1: 1 user, fixed CQI = 15, deterministic arrivals, 
#                   queue of infite dimension
#**.population             = 1
#**.stage                  = 0
#**.antenna.timeslot       = 1 ms
#**.antenna.queueDimension = 0
#**.cellular[*].TEST	      = 2
#**.cellular[*].TEST_CQI   = 15
#**.source[*].TEST	      = 2
#**.source[*].TEST_PERIOD  = ${0.20, 0.10, 0.05, 0.02, 0.01} ms
#**.source[*].TEST_SIZE    = 93
# Pseudo Random Generators
#num-rngs = 1   			
#**.antenna.rng-0          = 0
# +-------------------------------------------------------------------------------+

# +-------------------------------------------------------------------------------+
#  Degeneracy Test 2: 1 user, fixed CQI = 15, exponential arrivals, 
#                   queue of infite dimension
**.population             = 1
**.stage                  = 0
**.antenna.timeslot       = 1 ms
**.antenna.queueDimension = 0
**.cellular[*].TEST	      = 5
**.cellular[*].TEST_CQI   = 15
**.source[*].TEST	      = 5
**.source[*].RATE         = ${5, 10, 20}
**.source[*].TEST_SIZE    = 93
# Pseudo Random Generators
repeat                    = 30
seed-set				  = ${repetition}
num-rngs                  = 3   			
**.antenna.rng-0          = 0
**.source.rng-0           = 1
**.source.rng-1           = 2
# +-------------------------------------------------------------------------------+

# +-------------------------------------------------------------------------------+
# Consistency Test (first configuration): 1 user, fixed CQI = 10, 
#                  deterministic arrivals, queue of infite dimension, 
#                  fixed packet dimension = 25
#[consistencyTest0]
#**.population           = 1
#**.stage                = 0
#**.antenna.timeslot     = 1 ms
#**.cellular[*].TEST     = 3
#**.cellular[*].TEST_CQI = 10
#**.source[*].TEST       = 3
#**.source[*].TEST_RATE  = 4
#**.source[*].TEST_SIZE  = 25
# Pseudo Random Generators
#num-rngs = 1   			
#**.antenna.rng-0          = 0
# +-------------------------------------------------------------------------------+

# +-------------------------------------------------------------------------------+
# Consistency Test (second configuration): 1 user, fixed CQI = 10, 
#                  deterministic arrivals, queue of infite dimension, 
#                  fixed packet dimension = 25
#[consistencyTest1]
#**.population = 2
#**.stage               = 0
#**.antenna.timeslot    = 1 ms
#**.cellular[*].TEST     = 3
#**.cellular[*].TEST_CQI = 10
#**.source[*].TEST       = 3
#**.source[*].TEST_RATE  = 2
#**.source[*].TEST_SIZE  = 25
# Pseudo Random Generators
#num-rngs = 1   			
#**.antenna.rng-0          = 0
# +-------------------------------------------------------------------------------+

# +-------------------------------------------------------------------------------+
# Scheduling Test
#[schedulingValidation]
#**.population          = 3
#**.stage               = 0
#**.antenna.timeslot    = 1 ms
# fixed rate, service demand
#**.source[*].TEST      = 4
#**.source[*].TEST_SIZE = 25
#**.source[*].TEST_RATE = 2
#fixed CQIs
#**.cellular[*].TEST    = 4
#*.cellular[0].TEST_CQI = 5
#*.cellular[1].TEST_CQI = 10
#*.cellular[2].TEST_CQI = 15
# +-------------------------------------------------------------------------------+

# +-------------------------------------------------------------------------------+
#  Scenario: queues of infinite dimension.
#**.population             = 4
#**.antenna.stage          = 0
#**.antenna.timeslot       = 1 ms
#**.antenna.queueDimension = 0
# +-------------------------------------------------------------------------------+
# Cellular config
#**.cellular[*].typeCQI   = false #uniform = false, binomial = true
#**.cellular[*].uniform_r = 15    #range for uniform CQI
#**.binomial_n = #For Binomial only
#**.binomial_p = #For Binomial only
# +-------------------------------------------------------------------------------+
# Source config
#**.source[*].exponentialMean = 0.5 ms
# +-------------------------------------------------------------------------------+
# Pseudo Random Generators
#num-rngs = 4
#**.antenna.rng-0     = 0   			
#**.cellular[*].rng-0 = 1
#**.source[*].rng-0   = 2
#** source[*].rng-1   = 3
# +-------------------------------------------------------------------------------+