[General]
network = OpportunisticCellularNetwork
sim-time-limit = 300s
#debug-on-errors = true

# +-------------------------------------------------------------------------------+
#  Scenario: queues of infinite dimension.
**.population             = 20
**.antenna.stage          = 0
**.antenna.timeslot       = 1 ms
**.antenna.queueDimension = 0

# Cellular config
**.cellular[*].typeCQI = false #uniform = false, binomial = true
**.cellular[*].uniform_r = 15 #range for uniform CQI
#**.binomial_n = #For Binomial only
#**.binomial_p = #For Binomial only
# +-------------------------------------------------------------------------------+

# +-------------------------------------------------------------------------------+
#  Scenario: queues of fixed dimension.
#  **.antenna.stage          = 1
#  **.antenna.timeslot       = 1
#  **.antenna.population     = to be defined
#  **.antenna.queueDimension = to be defined
# +-------------------------------------------------------------------------------+

# +-------------------------------------------------------------------------------+
#  Pseudo Random Generators
num-rngs = 3   			
**.cellular[*].rng-0 = 0
**.source[*].rng-0   = 1
** source[*].rng-1   = 2
# +-------------------------------------------------------------------------------+